Circuit: * C:\Users\69134\Desktop\ECEN405_D_class_amp\schematic\filter\filterSim.asc


Date: Thu Sep 09 12:00:35 2021
Total elapsed time: 0.057 seconds.

tnom = 27
temp = 27
method = trap
totiter = 0
traniter = 0
tranpoints = 0
accept = 0
rejected = 0
matrix size = 10
fillins = 20
solver = Normal

